<?xml version="1.0" encoding="UTF-8"?>

<!-- generated on 2023-03-03 13:30:50 by Eclipse SUMO netedit Version 1.16.0
-->

<configuration xmlns:xsi="http://www.w3.org/2001/XMLSchema-instance" xsi:noNamespaceSchemaLocation="http://sumo.dlr.de/xsd/netconvertConfiguration.xsd">

    <input>
        <sumocfg-file value="test.sumocfg"/>
        <additional-files value="test.add.xml"/>
        <route-files value="test.rou.xml"/>
        <sumo-net-file value="test.net.xml"/>
    </input>

    <processing>
        <offset.disable-normalization value="true"/>
    </processing>

    <junctions>
        <no-turnarounds value="true"/>
    </junctions>

    <netedit>
        <new-network value="false"/>
    </netedit>

</configuration>
