<?xml version="1.0" encoding="UTF-8"?>

<!-- generated on 2023-03-03 13:30:50 by Eclipse SUMO netedit Version 1.16.0
<configuration xmlns:xsi="http://www.w3.org/2001/XMLSchema-instance" xsi:noNamespaceSchemaLocation="http://sumo.dlr.de/xsd/netconvertConfiguration.xsd">

    <input>
        <sumocfg-file value="C:\Users\Luca\source\repos\SmartTrafficLight\Simulation\data2\test.sumocfg"/>
        <additional-files value="C:\Users\Luca\source\repos\SmartTrafficLight\Simulation\data2\test.add.xml"/>
        <route-files value="C:\Users\Luca\source\repos\SmartTrafficLight\Simulation\data2\test.rou.xml"/>
        <sumo-net-file value="C:\Users\Luca\source\repos\SmartTrafficLight\Simulation\data2\test.net.xml"/>
    </input>

    <output>
        <output-file value="C:\Users\Luca\source\repos\SmartTrafficLight\Simulation\data2\test.net.xml"/>
    </output>

    <processing>
        <offset.disable-normalization value="true"/>
    </processing>

    <junctions>
        <no-turnarounds value="true"/>
    </junctions>

    <netedit>
        <new-network value="false"/>
    </netedit>

</configuration>
-->

<net version="1.16" junctionCornerDetail="5" limitTurnSpeed="5.50" xmlns:xsi="http://www.w3.org/2001/XMLSchema-instance" xsi:noNamespaceSchemaLocation="http://sumo.dlr.de/xsd/net_file.xsd">

    <location netOffset="0.00,0.00" convBoundary="-100.00,-0.22,300.00,200.88" origBoundary="10000000000.00,10000000000.00,-10000000000.00,-10000000000.00" projParameter="!"/>

    <edge id=":J1_0" function="internal">
        <lane id=":J1_0_0" index="0" speed="13.89" length="8.00" shape="4.09,102.28 -3.91,102.23"/>
    </edge>
    <edge id=":J1_1" function="internal">
        <lane id=":J1_1_0" index="0" speed="13.89" length="8.40" shape="-3.89,99.03 -1.43,98.55 0.12,97.46 1.66,96.37 4.12,95.88"/>
        <lane id=":J1_1_1" index="1" speed="13.89" length="8.40" shape="-3.89,99.03 4.11,99.08"/>
    </edge>
    <edge id=":J2_0" function="internal">
        <lane id=":J2_0_0" index="0" speed="12.66" length="33.98" shape="102.69,130.88 100.41,109.00 99.62,106.28 97.88,104.33 95.21,103.16 91.61,102.75"/>
    </edge>
    <edge id=":J2_1" function="internal">
        <lane id=":J2_1_0" index="0" speed="13.89" length="40.92" shape="102.69,130.88 100.41,109.00 97.17,90.36"/>
    </edge>
    <edge id=":J2_2" function="internal">
        <lane id=":J2_2_0" index="0" speed="12.57" length="39.50" shape="102.69,130.88 100.41,109.00 100.46,103.57 101.89,99.69 104.72,97.38 108.94,96.61"/>
    </edge>
    <edge id=":J2_3" function="internal">
        <lane id=":J2_3_0" index="0" speed="9.88" length="24.05" shape="123.90,103.02 108.90,102.91 106.42,103.25 104.73,104.33 103.84,106.13 103.74,108.67"/>
    </edge>
    <edge id=":J2_4" function="internal">
        <lane id=":J2_4_0" index="0" speed="13.89" length="32.29" shape="123.90,103.02 108.90,102.91 91.61,102.75"/>
    </edge>
    <edge id=":J2_5" function="internal">
        <lane id=":J2_5_0" index="0" speed="12.76" length="36.97" shape="128.92,99.86 108.92,99.71 103.84,99.09 100.19,97.33 97.97,94.42 97.17,90.36"/>
    </edge>
    <edge id=":J2_6" function="internal">
        <lane id=":J2_6_0" index="0" speed="11.11" length="27.81" shape="100.27,74.30 100.60,90.30 101.17,93.05 102.75,95.02 105.34,96.21 108.94,96.61"/>
    </edge>
    <edge id=":J2_7" function="internal">
        <lane id=":J2_7_0" index="0" speed="13.89" length="34.65" shape="100.27,74.30 100.60,90.30 101.06,94.58 102.02,99.49 103.05,104.40 103.74,108.67"/>
    </edge>
    <edge id=":J2_8" function="internal">
        <lane id=":J2_8_0" index="0" speed="11.93" length="33.49" shape="100.27,74.30 100.60,90.30 100.13,95.76 98.48,99.66 95.63,101.99 91.61,102.75"/>
    </edge>
    <edge id=":J2_9" function="internal">
        <lane id=":J2_9_0" index="0" speed="10.24" length="24.33" shape="76.64,96.25 91.64,96.33 94.10,95.97 95.84,94.85 96.86,92.98 97.17,90.36"/>
    </edge>
    <edge id=":J2_10" function="internal">
        <lane id=":J2_10_0" index="0" speed="13.89" length="32.30" shape="76.64,96.25 91.64,96.33 108.94,96.61"/>
    </edge>
    <edge id=":J2_11" function="internal">
        <lane id=":J2_11_0" index="0" speed="13.16" length="36.89" shape="71.62,99.43 91.62,99.53 96.58,100.12 100.25,101.84 102.63,104.69 103.74,108.67"/>
    </edge>
    <edge id=":J3_0" function="internal">
        <lane id=":J3_0_0" index="0" speed="13.89" length="8.24" shape="151.61,101.60 149.20,101.85 147.59,102.40 145.97,102.94 143.56,103.17"/>
        <lane id=":J3_0_1" index="1" speed="13.89" length="8.24" shape="151.61,101.60 149.21,101.35 147.60,100.80 145.99,100.24 143.59,99.97"/>
    </edge>
    <edge id=":J3_2" function="internal">
        <lane id=":J3_2_0" index="0" speed="13.89" length="8.23" shape="143.61,96.70 146.01,96.97 147.61,97.56 149.21,98.14 151.61,98.40"/>
    </edge>

    <edge id="-E0" from="J2" to="J1" priority="-1" shape="93.72,101.16 0.10,100.66">
        <lane id="-E0_0" index="0" speed="13.89" length="87.52" shape="91.61,102.75 4.09,102.28"/>
    </edge>
    <edge id="-E1" from="J4" to="J3" priority="-1">
        <lane id="-E1_0" index="0" speed="13.89" length="148.39" shape="300.00,101.60 151.61,101.60"/>
    </edge>
    <edge id="-E2" from="J2" to="J3" priority="-1" shape="108.49,98.21 145.60,98.31">
        <lane id="-E2_0" index="0" speed="13.89" length="34.67" shape="108.94,96.61 143.61,96.70"/>
    </edge>
    <edge id="-E3" from="J5" to="J1" priority="-1">
        <lane id="-E3_0" index="0" speed="13.89" length="96.10" shape="-99.99,98.40 -3.89,99.03"/>
    </edge>
    <edge id="-E4" from="J6" to="J2" priority="-1" shape="97.15,-0.22 99.00,90.48">
        <lane id="-E4_0" index="0" speed="13.89" length="74.57" endOffset="16.00" shape="98.75,-0.25 100.27,74.30"/>
    </edge>
    <edge id="-E5" from="J7" to="J2" priority="-1" shape="111.60,200.88 102.00,108.83">
        <lane id="-E5_0" index="0" speed="13.89" length="70.55" endOffset="22.00" shape="110.01,201.05 102.69,130.88"/>
    </edge>
    <edge id="E0" from="J1" to="J2" priority="-100" shape="0.10,100.66 93.90,101.14">
        <lane id="E0_0" index="0" speed="13.89" length="70.02" endOffset="15.00" shape="4.12,95.88 76.64,96.25"/>
        <lane id="E0_1" index="1" speed="13.89" length="70.02" endOffset="20.00" shape="4.11,99.08 71.62,99.43"/>
    </edge>
    <edge id="E1" from="J3" to="J4" priority="-1">
        <lane id="E1_0" index="0" speed="13.89" length="148.39" shape="151.61,98.40 300.00,98.40"/>
    </edge>
    <edge id="E2" from="J3" to="J2" priority="100" spreadType="center" length="38.00" shape="145.21,101.58 108.91,101.31">
        <lane id="E2_0" index="0" speed="13.89" length="20.50" endOffset="15.00" shape="143.56,103.17 123.90,103.02"/>
        <lane id="E2_1" index="1" speed="13.89" length="20.50" endOffset="20.00" shape="143.59,99.97 128.92,99.86"/>
    </edge>
    <edge id="E3" from="J1" to="J5" priority="-1">
        <lane id="E3_0" index="0" speed="13.89" length="96.10" shape="-3.91,102.23 -100.01,101.60"/>
    </edge>
    <edge id="E4" from="J2" to="J6" priority="-1" shape="98.77,90.33 97.15,-0.22">
        <lane id="E4_0" index="0" speed="13.89" length="90.56" shape="97.17,90.36 95.55,-0.19"/>
    </edge>
    <edge id="E5" from="J2" to="J7" priority="-1" shape="102.15,108.83 111.60,200.88">
        <lane id="E5_0" index="0" speed="13.89" length="92.53" shape="103.74,108.67 113.19,200.72"/>
    </edge>

    <tlLogic id="J2" type="static" programID="0" offset="0">
        <phase duration="20" state="GGGrrrGGGrrr" next="1"/>
        <phase duration="6"  state="yyyrrryyyrrr" next="2"/>
        <phase duration="20" state="rrrrrGrrrrrG" next="3"/>
        <phase duration="6"  state="rrrrryrrrrry" next="4"/>
        <phase duration="40" state="rrrGGrrrrGGr" next="5"/>
        <phase duration="6"  state="rrryyrrrryyr" next="0"/>
        <param key="barrier2Phases" value="2,6"/>
        <param key="barrierPhases" value="4,8"/>
        <param key="ring1" value="0,2,0,4"/>
        <param key="ring2" value="0,6,0,8"/>
    </tlLogic>

    <junction id="J1" type="priority" x="0.10" y="100.66" incLanes="-E0_0 -E3_0" intLanes=":J1_0_0 :J1_1_0 :J1_1_1" shape="4.08,103.88 4.13,94.28 1.10,95.09 -0.85,96.62 -2.09,97.21 -3.88,97.43 -3.92,103.83">
        <request index="0" response="000" foes="000" cont="0"/>
        <request index="1" response="000" foes="000" cont="0"/>
        <request index="2" response="000" foes="000" cont="0"/>
    </junction>
    <junction id="J2" type="traffic_light" x="100.00" y="100.00" incLanes="-E5_0 E2_0 E2_1 -E4_0 E0_0 E0_1" intLanes=":J2_0_0 :J2_1_0 :J2_2_0 :J2_3_0 :J2_4_0 :J2_5_0 :J2_6_0 :J2_7_0 :J2_8_0 :J2_9_0 :J2_10_0 :J2_11_0" shape="98.82,109.17 105.33,108.50 105.55,106.27 106.02,105.49 106.74,104.94 107.71,104.61 108.92,104.51 108.95,95.01 106.91,94.87 105.24,94.48 103.93,93.82 102.99,92.90 102.41,91.71 102.20,90.27 95.57,90.39 95.17,92.81 94.63,93.65 93.86,94.26 92.87,94.61 91.65,94.73 91.60,104.35 93.66,104.49 95.39,104.90 96.76,105.57 97.79,106.51 98.48,107.71">
        <request index="0"  response="000000010000" foes="000100010000" cont="0"/>
        <request index="1"  response="010000110000" foes="111100110000" cont="0"/>
        <request index="2"  response="110011110000" foes="110011110000" cont="0"/>
        <request index="3"  response="000000000000" foes="100010000000" cont="0"/>
        <request index="4"  response="000000000000" foes="100110000111" cont="0"/>
        <request index="5"  response="000000000000" foes="011110000110" cont="0"/>
        <request index="6"  response="010000000000" foes="010000000100" cont="0"/>
        <request index="7"  response="000000111000" foes="110000111100" cont="0"/>
        <request index="8"  response="010000110011" foes="110000110011" cont="0"/>
        <request index="9"  response="000000100010" foes="000000100010" cont="0"/>
        <request index="10" response="000010100000" foes="000111100110" cont="0"/>
        <request index="11" response="000110011010" foes="000110011110" cont="0"/>
    </junction>
    <junction id="J3" type="priority" x="150.00" y="100.00" incLanes="-E1_0 -E2_0" intLanes=":J3_0_0 :J3_0_1 :J3_2_0" shape="151.61,103.20 151.61,96.80 148.63,96.36 146.60,95.55 145.35,95.23 143.62,95.10 143.55,104.77 146.55,104.37 147.58,104.00 148.61,103.61 149.87,103.32">
        <request index="0" response="000" foes="000" cont="0"/>
        <request index="1" response="000" foes="000" cont="0"/>
        <request index="2" response="000" foes="000" cont="0"/>
    </junction>
    <junction id="J4" type="dead_end" x="300.00" y="100.00" incLanes="E1_0" intLanes="" shape="300.00,100.00 300.00,96.80 300.00,100.00"/>
    <junction id="J5" type="dead_end" x="-100.00" y="100.00" incLanes="E3_0" intLanes="" shape="-100.00,100.00 -100.02,103.20 -100.00,100.00"/>
    <junction id="J6" type="dead_end" x="97.15" y="-0.22" incLanes="E4_0" intLanes="" shape="97.15,-0.22 100.35,-0.29 93.95,-0.16"/>
    <junction id="J7" type="dead_end" x="111.60" y="200.88" incLanes="E5_0" intLanes="" shape="111.60,200.88 108.42,201.21 114.78,200.55"/>

    <connection from="-E0" to="E3" fromLane="0" toLane="0" via=":J1_0_0" dir="s" state="M"/>
    <connection from="-E1" to="E2" fromLane="0" toLane="0" via=":J3_0_0" dir="s" state="M"/>
    <connection from="-E1" to="E2" fromLane="0" toLane="1" via=":J3_0_1" dir="s" state="M"/>
    <connection from="-E2" to="E1" fromLane="0" toLane="0" via=":J3_2_0" dir="s" state="M"/>
    <connection from="-E3" to="E0" fromLane="0" toLane="0" via=":J1_1_0" dir="s" state="M"/>
    <connection from="-E3" to="E0" fromLane="0" toLane="1" via=":J1_1_1" dir="s" state="M"/>
    <connection from="-E4" to="-E2" fromLane="0" toLane="0" via=":J2_6_0" tl="J2" linkIndex="6" dir="r" state="o"/>
    <connection from="-E4" to="E5" fromLane="0" toLane="0" via=":J2_7_0" tl="J2" linkIndex="7" dir="s" state="o"/>
    <connection from="-E4" to="-E0" fromLane="0" toLane="0" via=":J2_8_0" tl="J2" linkIndex="8" dir="l" state="o"/>
    <connection from="-E5" to="-E0" fromLane="0" toLane="0" via=":J2_0_0" tl="J2" linkIndex="0" dir="r" state="o"/>
    <connection from="-E5" to="E4" fromLane="0" toLane="0" via=":J2_1_0" tl="J2" linkIndex="1" dir="s" state="o"/>
    <connection from="-E5" to="-E2" fromLane="0" toLane="0" via=":J2_2_0" tl="J2" linkIndex="2" dir="l" state="o"/>
    <connection from="E0" to="E4" fromLane="0" toLane="0" via=":J2_9_0" tl="J2" linkIndex="9" dir="r" state="o"/>
    <connection from="E0" to="-E2" fromLane="0" toLane="0" via=":J2_10_0" tl="J2" linkIndex="10" dir="s" state="o"/>
    <connection from="E0" to="E5" fromLane="1" toLane="0" via=":J2_11_0" tl="J2" linkIndex="11" dir="l" state="o"/>
    <connection from="E2" to="E5" fromLane="0" toLane="0" via=":J2_3_0" tl="J2" linkIndex="3" dir="r" state="O"/>
    <connection from="E2" to="-E0" fromLane="0" toLane="0" via=":J2_4_0" tl="J2" linkIndex="4" dir="s" state="O"/>
    <connection from="E2" to="E4" fromLane="1" toLane="0" via=":J2_5_0" tl="J2" linkIndex="5" dir="l" state="O"/>

    <connection from=":J1_0" to="E3" fromLane="0" toLane="0" dir="s" state="M"/>
    <connection from=":J1_1" to="E0" fromLane="0" toLane="0" dir="s" state="M"/>
    <connection from=":J1_1" to="E0" fromLane="1" toLane="1" dir="s" state="M"/>
    <connection from=":J2_0" to="-E0" fromLane="0" toLane="0" dir="r" state="M"/>
    <connection from=":J2_1" to="E4" fromLane="0" toLane="0" dir="s" state="M"/>
    <connection from=":J2_2" to="-E2" fromLane="0" toLane="0" dir="l" state="M"/>
    <connection from=":J2_3" to="E5" fromLane="0" toLane="0" dir="r" state="M"/>
    <connection from=":J2_4" to="-E0" fromLane="0" toLane="0" dir="s" state="M"/>
    <connection from=":J2_5" to="E4" fromLane="0" toLane="0" dir="l" state="M"/>
    <connection from=":J2_6" to="-E2" fromLane="0" toLane="0" dir="r" state="M"/>
    <connection from=":J2_7" to="E5" fromLane="0" toLane="0" dir="s" state="M"/>
    <connection from=":J2_8" to="-E0" fromLane="0" toLane="0" dir="l" state="M"/>
    <connection from=":J2_9" to="E4" fromLane="0" toLane="0" dir="r" state="M"/>
    <connection from=":J2_10" to="-E2" fromLane="0" toLane="0" dir="s" state="M"/>
    <connection from=":J2_11" to="E5" fromLane="0" toLane="0" dir="l" state="M"/>
    <connection from=":J3_0" to="E2" fromLane="0" toLane="0" dir="s" state="M"/>
    <connection from=":J3_0" to="E2" fromLane="1" toLane="1" dir="s" state="M"/>
    <connection from=":J3_2" to="E1" fromLane="0" toLane="0" dir="s" state="M"/>

</net>
